# DISU package for  MODFLOW-USG, generated by Flopy.
1893 3 11889 0 1 4 2 0 
  0  0  0
INTERNAL               1     (3I10) -1 #nodelay                       
       651       591       651
CONSTANT    4.000000E+02                           #top layer 1                   
CONSTANT    2.200000E+02                           #top layer 2                   
CONSTANT    2.000000E+02                           #top layer 3                   
CONSTANT    2.200000E+02                           #bot layer 1                   
CONSTANT    2.000000E+02                           #bot layer 2                   
INTERNAL               1 (651E15.6) -1 #bot 3                         
   2.243809E-02   4.562464E-01   1.033644E-01   7.566577E-02   6.674079E-01   8.060704E-01   3.167154E-01   2.508825E-01   6.298865E-02   4.005440E-01   2.644620E-01   1.152122E-01   4.015388E-01   4.815447E-01   4.117324E-01   9.592044E-01   9.959866E-01   7.635382E-01   2.879142E-01   9.789810E-01   8.789292E-02   1.478463E-01   3.538309E-01   7.354008E-01   2.791305E-01   5.352831E-01   5.913013E-01   4.827469E-01   9.860852E-01   9.578985E-01   6.349148E-02   3.696787E-01   5.435058E-01   6.370094E-01   2.196263E-01   7.004904E-01   2.022375E-01   9.315653E-02   3.749569E-01   6.840711E-01   3.443240E-01   6.817654E-01   9.633139E-01   6.379853E-01   1.357688E-01   5.218834E-01   8.001450E-01   2.851265E-01   1.380727E-01   6.339222E-01   8.697120E-01   4.946542E-01   6.633502E-01   3.819418E-01   1.899602E-01   3.055880E-03   6.970659E-01   8.311874E-01   3.531833E-01   1.007596E-01   3.082206E-02   5.133232E-01   8.559469E-01   7.735508E-01   4.412689E-01   3.336338E-01   1.256131E-01   1.229024E-01   5.897039E-01   4.160567E-01   2.171567E-01   1.699154E-01   6.566293E-01   4.736214E-01   8.746762E-01   3.928497E-01   1.391973E-01   8.534226E-01   2.235675E-01   5.449710E-01   1.450824E-01   5.801725E-01   2.600869E-02   6.797647E-01   8.857878E-02   9.191800E-01   7.859051E-01   5.148608E-01   1.251847E-01   9.094136E-01   6.459003E-01   9.632818E-02   1.833381E-01   2.020102E-01   3.931148E-01   7.834186E-02   8.157629E-01   5.514418E-01   2.723030E-01   5.960199E-01   2.986059E-01   3.428301E-01   1.335597E-01   5.084127E-01   1.802917E-02   7.894914E-01   7.808296E-01   6.938639E-02   8.115889E-01   7.096903E-01   8.126030E-01   8.010309E-01   1.566711E-01   1.758847E-01   7.892714E-01   1.601014E-01   7.143214E-01   3.862396E-01   1.008592E-01   1.242157E-01   3.888168E-01   6.554618E-01   2.412932E-01   6.227220E-01   3.551486E-01   4.751870E-01   6.718129E-01   8.361444E-01   5.088838E-01   1.713825E-01   6.064841E-01   3.961518E-01   3.352752E-01   5.985622E-01   8.300452E-03   8.892789E-01   8.021189E-02   2.975991E-01   3.802808E-01   5.028821E-03   7.016473E-01   6.085505E-01   3.541718E-01   8.667489E-01   8.934770E-01   7.268078E-02   5.669535E-01   3.521461E-01   4.228180E-01   2.011738E-01   8.934568E-01   3.715823E-01   9.006691E-01   3.864243E-01   8.430857E-01   9.412882E-01   8.995278E-01   1.327481E-01   7.821906E-01   9.576846E-01   5.866525E-01   1.170433E-01   2.373189E-01   1.838259E-01   2.180914E-01   9.828372E-01   5.326750E-01   4.855783E-01   4.855783E-01   4.855783E-01   4.855783E-01   8.240687E-01   8.240687E-01   8.240687E-01   8.240687E-01   6.676741E-01   6.676741E-01   6.676741E-01   6.676741E-01   9.544780E-01   9.544780E-01   9.544780E-01   9.544780E-01   8.153192E-01   8.153192E-01   8.153192E-01   8.153192E-01   3.793162E-01   1.330059E-01   6.532714E-01   5.936282E-01   5.772778E-01   8.883646E-01   8.881402E-01   2.179140E-01   8.323085E-01   3.967434E-01   9.382415E-01   4.456304E-01   1.299649E-01   8.241530E-01   5.114649E-01   5.671569E-01   5.671569E-01   5.671569E-01   5.671569E-01   7.894573E-01   7.894573E-01   7.894573E-01   7.894573E-01   7.894573E-01   7.894573E-01   7.894573E-01   7.894573E-01   7.894573E-01   7.894573E-01   7.894573E-01   7.894573E-01   7.894573E-01   7.894573E-01   7.894573E-01   7.894573E-01   4.817227E-01   4.817227E-01   4.817227E-01   4.817227E-01   4.817227E-01   4.817227E-01   4.817227E-01   4.817227E-01   4.817227E-01   4.817227E-01   4.817227E-01   4.817227E-01   4.817227E-01   4.817227E-01   4.817227E-01   4.817227E-01   6.888084E-06   6.888084E-06   6.888084E-06   6.888084E-06   6.888084E-06   6.888084E-06   6.888084E-06   6.888084E-06   6.888084E-06   6.888084E-06   6.888084E-06   6.888084E-06   6.888084E-06   6.888084E-06   6.888084E-06   6.888084E-06   8.143985E-02   8.143985E-02   8.143985E-02   8.143985E-02   1.155792E-01   4.226862E-01   9.282331E-01   3.991929E-01   8.299676E-01   4.004635E-01   2.693070E-01   3.985269E-01   7.357770E-01   8.615431E-01   7.522269E-01   4.170688E-01   6.985040E-01   8.829401E-01   4.712077E-01   1.407270E-01   1.407270E-01   1.407270E-01   1.407270E-01   2.709355E-01   2.709355E-01   2.709355E-01   2.709355E-01   2.709355E-01   2.709355E-01   2.709355E-01   2.709355E-01   2.709355E-01   2.709355E-01   2.709355E-01   2.709355E-01   2.709355E-01   2.709355E-01   2.709355E-01   2.709355E-01   8.012453E-01   8.012453E-01   8.012453E-01   8.012453E-01   8.012453E-01   8.012453E-01   8.012453E-01   8.012453E-01   8.012453E-01   8.012453E-01   8.012453E-01   8.012453E-01   8.012453E-01   8.012453E-01   8.012453E-01   8.012453E-01   8.012453E-01   8.012453E-01   8.012453E-01   8.012453E-01   8.012453E-01   8.012453E-01   8.012453E-01   8.012453E-01   8.012453E-01   8.012453E-01   8.012453E-01   8.012453E-01   8.012453E-01   8.012453E-01   8.012453E-01   8.012453E-01   8.012453E-01   8.012453E-01   8.012453E-01   8.012453E-01   8.012453E-01   8.012453E-01   8.012453E-01   8.012453E-01   8.012453E-01   8.012453E-01   8.012453E-01   8.012453E-01   8.012453E-01   8.012453E-01   8.012453E-01   8.012453E-01   8.012453E-01   8.012453E-01   8.012453E-01   8.012453E-01   8.012453E-01   8.012453E-01   8.012453E-01   8.012453E-01   8.012453E-01   8.012453E-01   8.012453E-01   8.012453E-01   8.012453E-01   8.012453E-01   8.012453E-01   8.012453E-01   5.785652E-01   5.785652E-01   5.785652E-01   5.785652E-01   5.785652E-01   5.785652E-01   5.785652E-01   5.785652E-01   5.785652E-01   5.785652E-01   5.785652E-01   5.785652E-01   5.785652E-01   5.785652E-01   5.785652E-01   5.785652E-01   7.405725E-01   7.405725E-01   7.405725E-01   7.405725E-01   6.604221E-02   5.937814E-01   3.469703E-01   4.708087E-01   6.094419E-01   6.140838E-01   1.596340E-01   9.203107E-01   4.420732E-01   2.098385E-01   4.043256E-01   1.506033E-01   6.307305E-01   3.463252E-01   3.815719E-01   8.993290E-01   8.993290E-01   8.993290E-01   8.993290E-01   3.850517E-01   3.850517E-01   3.850517E-01   3.850517E-01   3.850517E-01   3.850517E-01   3.850517E-01   3.850517E-01   3.850517E-01   3.850517E-01   3.850517E-01   3.850517E-01   3.850517E-01   3.850517E-01   3.850517E-01   3.850517E-01   7.045684E-01   7.045684E-01   7.045684E-01   7.045684E-01   7.045684E-01   7.045684E-01   7.045684E-01   7.045684E-01   7.045684E-01   7.045684E-01   7.045684E-01   7.045684E-01   7.045684E-01   7.045684E-01   7.045684E-01   7.045684E-01   9.703479E-01   9.703479E-01   9.703479E-01   9.703479E-01   9.703479E-01   9.703479E-01   9.703479E-01   9.703479E-01   9.703479E-01   9.703479E-01   9.703479E-01   9.703479E-01   9.703479E-01   9.703479E-01   9.703479E-01   9.703479E-01   3.238958E-01   3.238958E-01   3.238958E-01   3.238958E-01   2.734807E-01   6.184534E-02   1.082432E-01   7.676611E-01   1.117507E-02   9.213673E-01   9.741169E-01   7.517940E-01   5.349357E-01   4.176952E-01   7.749915E-01   8.841435E-01   9.938530E-01   8.732386E-01   2.337190E-01   6.730608E-01   6.730608E-01   6.730608E-01   6.730608E-01   5.683666E-01   5.683666E-01   5.683666E-01   5.683666E-01   7.216938E-01   7.216938E-01   7.216938E-01   7.216938E-01   9.048781E-01   9.048781E-01   9.048781E-01   9.048781E-01   6.733816E-01   6.733816E-01   6.733816E-01   6.733816E-01   4.056280E-01   2.530941E-01   9.427499E-01   2.848120E-01   9.626904E-01   3.453393E-01   7.169288E-01   7.514836E-01   8.620462E-01   8.667351E-01   4.405669E-01   8.021872E-01   1.222394E-01   8.625535E-01   7.013917E-01   1.020475E-01   7.938535E-01   7.089290E-02   7.499483E-01   2.155703E-01   2.405049E-01   7.046072E-01   5.343833E-01   3.391307E-01   3.749289E-01   4.844758E-01   1.697638E-01   9.083949E-02   7.997109E-01   2.309267E-02   8.170894E-01   7.690782E-01   9.183972E-01   7.460121E-01   9.587201E-01   5.322381E-01   4.026461E-01   5.650724E-01   6.441515E-01   7.944827E-01   5.656044E-01   7.028651E-01   7.807508E-01   8.327342E-01   6.799427E-01   9.707134E-01   7.918491E-01   5.632919E-01   3.500190E-01   2.098067E-01   5.256088E-01   7.596179E-01   4.951867E-01   2.234415E-01   7.088440E-01   2.837903E-01   5.716003E-01   4.288503E-01   5.330200E-01   4.233069E-01   1.331974E-01   8.394014E-01   8.620365E-01   5.481055E-01   2.278654E-01   5.992999E-01   3.796838E-02   9.932469E-01   8.227759E-01   3.295718E-01   2.210328E-01   9.029930E-01   4.176577E-01   9.854695E-01   6.435942E-01   2.819599E-01   5.134643E-01   2.309279E-01   5.468354E-01   6.474258E-01   8.351662E-01   3.348262E-01   9.467592E-01   4.467958E-01   1.781208E-01   6.795445E-01   7.194825E-01   4.566418E-01   5.778102E-01   8.848870E-01   5.644046E-01   5.373954E-01   8.709541E-01   4.809434E-01   2.966163E-01   5.386060E-01   1.659704E-01   5.073539E-01   6.235248E-01   2.197053E-01   5.203621E-01   1.182135E-01   6.359075E-01   5.343679E-02   1.848213E-01   5.554166E-01   7.676830E-01   8.639617E-01   6.665078E-01   7.701004E-01   5.876280E-01   2.837332E-01   7.128357E-01   5.559282E-01   8.380684E-01   9.842944E-01   8.679560E-01   9.459492E-01   6.775149E-01   1.506814E-01   1.709019E-01   2.035289E-01   7.586097E-01   9.347802E-01   6.709450E-01   3.054009E-01   6.230909E-01   9.633703E-01   1.454004E-01   4.572640E-01   5.599924E-01   3.411514E-01   8.430005E-01   5.876067E-01   3.960083E-01   3.908017E-02   2.423040E-01   4.740437E-01   1.958261E-01   1.631081E-01   8.864462E-01   8.127074E-01   2.988290E-02   2.555853E-01   1.038934E-01   7.744516E-01   4.014246E-01   6.838874E-01   6.955838E-01   6.862523E-02   1.126316E-01   6.819065E-01   2.349023E-01   9.976050E-01   3.752423E-01   6.697151E-01   2.199124E-01   1.517349E-01   2.920199E-01   4.134067E-01   7.817066E-01   7.298539E-01   2.078412E-01   6.642341E-01   1.045151E-01   4.843037E-02   4.013274E-01   7.753296E-01
INTERNAL               1 (651E15.6) -1 #area layer 1                  
   2.500000E+05   2.500000E+05   2.500000E+05   2.500000E+05   2.500000E+05   2.500000E+05   2.500000E+05   2.500000E+05   2.500000E+05   2.500000E+05   2.500000E+05   2.500000E+05   2.500000E+05   2.500000E+05   2.500000E+05   2.500000E+05   2.500000E+05   2.500000E+05   2.500000E+05   2.500000E+05   2.500000E+05   2.500000E+05   2.500000E+05   2.500000E+05   2.500000E+05   2.500000E+05   2.500000E+05   2.500000E+05   2.500000E+05   2.500000E+05   2.500000E+05   2.500000E+05   2.500000E+05   2.500000E+05   2.500000E+05   2.500000E+05   2.500000E+05   2.500000E+05   2.500000E+05   2.500000E+05   2.500000E+05   2.500000E+05   2.500000E+05   2.500000E+05   2.500000E+05   2.500000E+05   2.500000E+05   2.500000E+05   2.500000E+05   2.500000E+05   2.500000E+05   2.500000E+05   2.500000E+05   2.500000E+05   2.500000E+05   2.500000E+05   2.500000E+05   2.500000E+05   2.500000E+05   2.500000E+05   2.500000E+05   2.500000E+05   2.500000E+05   2.500000E+05   2.500000E+05   2.500000E+05   2.500000E+05   2.500000E+05   2.500000E+05   2.500000E+05   2.500000E+05   2.500000E+05   2.500000E+05   2.500000E+05   2.500000E+05   2.500000E+05   2.500000E+05   2.500000E+05   2.500000E+05   2.500000E+05   2.500000E+05   2.500000E+05   2.500000E+05   2.500000E+05   2.500000E+05   2.500000E+05   2.500000E+05   2.500000E+05   2.500000E+05   2.500000E+05   2.500000E+05   2.500000E+05   2.500000E+05   2.500000E+05   2.500000E+05   2.500000E+05   2.500000E+05   2.500000E+05   2.500000E+05   2.500000E+05   2.500000E+05   2.500000E+05   2.500000E+05   2.500000E+05   2.500000E+05   2.500000E+05   2.500000E+05   2.500000E+05   2.500000E+05   2.500000E+05   2.500000E+05   2.500000E+05   2.500000E+05   2.500000E+05   2.500000E+05   2.500000E+05   2.500000E+05   2.500000E+05   2.500000E+05   2.500000E+05   2.500000E+05   2.500000E+05   2.500000E+05   2.500000E+05   2.500000E+05   2.500000E+05   2.500000E+05   2.500000E+05   2.500000E+05   2.500000E+05   2.500000E+05   2.500000E+05   2.500000E+05   2.500000E+05   2.500000E+05   2.500000E+05   2.500000E+05   2.500000E+05   2.500000E+05   2.500000E+05   2.500000E+05   2.500000E+05   2.500000E+05   2.500000E+05   2.500000E+05   2.500000E+05   2.500000E+05   2.500000E+05   2.500000E+05   2.500000E+05   2.500000E+05   2.500000E+05   2.500000E+05   2.500000E+05   2.500000E+05   2.500000E+05   2.500000E+05   2.500000E+05   2.500000E+05   2.500000E+05   2.500000E+05   2.500000E+05   2.500000E+05   2.500000E+05   2.500000E+05   2.500000E+05   2.500000E+05   6.250000E+04   6.250000E+04   6.250000E+04   6.250000E+04   6.250000E+04   6.250000E+04   6.250000E+04   6.250000E+04   6.250000E+04   6.250000E+04   6.250000E+04   6.250000E+04   6.250000E+04   6.250000E+04   6.250000E+04   6.250000E+04   6.250000E+04   6.250000E+04   6.250000E+04   6.250000E+04   2.500000E+05   2.500000E+05   2.500000E+05   2.500000E+05   2.500000E+05   2.500000E+05   2.500000E+05   2.500000E+05   2.500000E+05   2.500000E+05   2.500000E+05   2.500000E+05   2.500000E+05   2.500000E+05   2.500000E+05   6.250000E+04   6.250000E+04   6.250000E+04   6.250000E+04   1.562500E+04   1.562500E+04   1.562500E+04   1.562500E+04   1.562500E+04   1.562500E+04   1.562500E+04   1.562500E+04   1.562500E+04   1.562500E+04   1.562500E+04   1.562500E+04   1.562500E+04   1.562500E+04   1.562500E+04   1.562500E+04   1.562500E+04   1.562500E+04   1.562500E+04   1.562500E+04   1.562500E+04   1.562500E+04   1.562500E+04   1.562500E+04   1.562500E+04   1.562500E+04   1.562500E+04   1.562500E+04   1.562500E+04   1.562500E+04   1.562500E+04   1.562500E+04   1.562500E+04   1.562500E+04   1.562500E+04   1.562500E+04   1.562500E+04   1.562500E+04   1.562500E+04   1.562500E+04   1.562500E+04   1.562500E+04   1.562500E+04   1.562500E+04   1.562500E+04   1.562500E+04   1.562500E+04   1.562500E+04   6.250000E+04   6.250000E+04   6.250000E+04   6.250000E+04   2.500000E+05   2.500000E+05   2.500000E+05   2.500000E+05   2.500000E+05   2.500000E+05   2.500000E+05   2.500000E+05   2.500000E+05   2.500000E+05   2.500000E+05   2.500000E+05   2.500000E+05   2.500000E+05   2.500000E+05   6.250000E+04   6.250000E+04   6.250000E+04   6.250000E+04   1.562500E+04   1.562500E+04   1.562500E+04   1.562500E+04   1.562500E+04   1.562500E+04   1.562500E+04   1.562500E+04   1.562500E+04   1.562500E+04   1.562500E+04   1.562500E+04   1.562500E+04   1.562500E+04   1.562500E+04   1.562500E+04   3.906250E+03   3.906250E+03   3.906250E+03   3.906250E+03   3.906250E+03   3.906250E+03   3.906250E+03   3.906250E+03   3.906250E+03   3.906250E+03   3.906250E+03   3.906250E+03   3.906250E+03   3.906250E+03   3.906250E+03   3.906250E+03   3.906250E+03   3.906250E+03   3.906250E+03   3.906250E+03   3.906250E+03   3.906250E+03   3.906250E+03   3.906250E+03   3.906250E+03   3.906250E+03   3.906250E+03   3.906250E+03   3.906250E+03   3.906250E+03   3.906250E+03   3.906250E+03   3.906250E+03   3.906250E+03   3.906250E+03   3.906250E+03   3.906250E+03   3.906250E+03   3.906250E+03   3.906250E+03   3.906250E+03   3.906250E+03   3.906250E+03   3.906250E+03   3.906250E+03   3.906250E+03   3.906250E+03   3.906250E+03   3.906250E+03   3.906250E+03   3.906250E+03   3.906250E+03   3.906250E+03   3.906250E+03   3.906250E+03   3.906250E+03   3.906250E+03   3.906250E+03   3.906250E+03   3.906250E+03   3.906250E+03   3.906250E+03   3.906250E+03   3.906250E+03   1.562500E+04   1.562500E+04   1.562500E+04   1.562500E+04   1.562500E+04   1.562500E+04   1.562500E+04   1.562500E+04   1.562500E+04   1.562500E+04   1.562500E+04   1.562500E+04   1.562500E+04   1.562500E+04   1.562500E+04   1.562500E+04   6.250000E+04   6.250000E+04   6.250000E+04   6.250000E+04   2.500000E+05   2.500000E+05   2.500000E+05   2.500000E+05   2.500000E+05   2.500000E+05   2.500000E+05   2.500000E+05   2.500000E+05   2.500000E+05   2.500000E+05   2.500000E+05   2.500000E+05   2.500000E+05   2.500000E+05   6.250000E+04   6.250000E+04   6.250000E+04   6.250000E+04   1.562500E+04   1.562500E+04   1.562500E+04   1.562500E+04   1.562500E+04   1.562500E+04   1.562500E+04   1.562500E+04   1.562500E+04   1.562500E+04   1.562500E+04   1.562500E+04   1.562500E+04   1.562500E+04   1.562500E+04   1.562500E+04   1.562500E+04   1.562500E+04   1.562500E+04   1.562500E+04   1.562500E+04   1.562500E+04   1.562500E+04   1.562500E+04   1.562500E+04   1.562500E+04   1.562500E+04   1.562500E+04   1.562500E+04   1.562500E+04   1.562500E+04   1.562500E+04   1.562500E+04   1.562500E+04   1.562500E+04   1.562500E+04   1.562500E+04   1.562500E+04   1.562500E+04   1.562500E+04   1.562500E+04   1.562500E+04   1.562500E+04   1.562500E+04   1.562500E+04   1.562500E+04   1.562500E+04   1.562500E+04   6.250000E+04   6.250000E+04   6.250000E+04   6.250000E+04   2.500000E+05   2.500000E+05   2.500000E+05   2.500000E+05   2.500000E+05   2.500000E+05   2.500000E+05   2.500000E+05   2.500000E+05   2.500000E+05   2.500000E+05   2.500000E+05   2.500000E+05   2.500000E+05   2.500000E+05   6.250000E+04   6.250000E+04   6.250000E+04   6.250000E+04   6.250000E+04   6.250000E+04   6.250000E+04   6.250000E+04   6.250000E+04   6.250000E+04   6.250000E+04   6.250000E+04   6.250000E+04   6.250000E+04   6.250000E+04   6.250000E+04   6.250000E+04   6.250000E+04   6.250000E+04   6.250000E+04   2.500000E+05   2.500000E+05   2.500000E+05   2.500000E+05   2.500000E+05   2.500000E+05   2.500000E+05   2.500000E+05   2.500000E+05   2.500000E+05   2.500000E+05   2.500000E+05   2.500000E+05   2.500000E+05   2.500000E+05   2.500000E+05   2.500000E+05   2.500000E+05   2.500000E+05   2.500000E+05   2.500000E+05   2.500000E+05   2.500000E+05   2.500000E+05   2.500000E+05   2.500000E+05   2.500000E+05   2.500000E+05   2.500000E+05   2.500000E+05   2.500000E+05   2.500000E+05   2.500000E+05   2.500000E+05   2.500000E+05   2.500000E+05   2.500000E+05   2.500000E+05   2.500000E+05   2.500000E+05   2.500000E+05   2.500000E+05   2.500000E+05   2.500000E+05   2.500000E+05   2.500000E+05   2.500000E+05   2.500000E+05   2.500000E+05   2.500000E+05   2.500000E+05   2.500000E+05   2.500000E+05   2.500000E+05   2.500000E+05   2.500000E+05   2.500000E+05   2.500000E+05   2.500000E+05   2.500000E+05   2.500000E+05   2.500000E+05   2.500000E+05   2.500000E+05   2.500000E+05   2.500000E+05   2.500000E+05   2.500000E+05   2.500000E+05   2.500000E+05   2.500000E+05   2.500000E+05   2.500000E+05   2.500000E+05   2.500000E+05   2.500000E+05   2.500000E+05   2.500000E+05   2.500000E+05   2.500000E+05   2.500000E+05   2.500000E+05   2.500000E+05   2.500000E+05   2.500000E+05   2.500000E+05   2.500000E+05   2.500000E+05   2.500000E+05   2.500000E+05   2.500000E+05   2.500000E+05   2.500000E+05   2.500000E+05   2.500000E+05   2.500000E+05   2.500000E+05   2.500000E+05   2.500000E+05   2.500000E+05   2.500000E+05   2.500000E+05   2.500000E+05   2.500000E+05   2.500000E+05   2.500000E+05   2.500000E+05   2.500000E+05   2.500000E+05   2.500000E+05   2.500000E+05   2.500000E+05   2.500000E+05   2.500000E+05   2.500000E+05   2.500000E+05   2.500000E+05   2.500000E+05   2.500000E+05   2.500000E+05   2.500000E+05   2.500000E+05   2.500000E+05   2.500000E+05   2.500000E+05   2.500000E+05   2.500000E+05   2.500000E+05   2.500000E+05   2.500000E+05   2.500000E+05   2.500000E+05   2.500000E+05   2.500000E+05   2.500000E+05   2.500000E+05   2.500000E+05   2.500000E+05   2.500000E+05   2.500000E+05   2.500000E+05   2.500000E+05   2.500000E+05   2.500000E+05   2.500000E+05   2.500000E+05   2.500000E+05   2.500000E+05   2.500000E+05   2.500000E+05   2.500000E+05   2.500000E+05   2.500000E+05   2.500000E+05   2.500000E+05   2.500000E+05   2.500000E+05   2.500000E+05   2.500000E+05   2.500000E+05   2.500000E+05   2.500000E+05   2.500000E+05   2.500000E+05   2.500000E+05   2.500000E+05   2.500000E+05   2.500000E+05
INTERNAL               1 (591E15.6) -1 #area layer 2                  
   2.500000E+05   2.500000E+05   2.500000E+05   2.500000E+05   2.500000E+05   2.500000E+05   2.500000E+05   2.500000E+05   2.500000E+05   2.500000E+05   2.500000E+05   2.500000E+05   2.500000E+05   2.500000E+05   2.500000E+05   2.500000E+05   2.500000E+05   2.500000E+05   2.500000E+05   2.500000E+05   2.500000E+05   2.500000E+05   2.500000E+05   2.500000E+05   2.500000E+05   2.500000E+05   2.500000E+05   2.500000E+05   2.500000E+05   2.500000E+05   2.500000E+05   2.500000E+05   2.500000E+05   2.500000E+05   2.500000E+05   2.500000E+05   2.500000E+05   2.500000E+05   2.500000E+05   2.500000E+05   2.500000E+05   2.500000E+05   2.500000E+05   2.500000E+05   2.500000E+05   2.500000E+05   2.500000E+05   2.500000E+05   2.500000E+05   2.500000E+05   2.500000E+05   2.500000E+05   2.500000E+05   2.500000E+05   2.500000E+05   2.500000E+05   2.500000E+05   2.500000E+05   2.500000E+05   2.500000E+05   2.500000E+05   2.500000E+05   2.500000E+05   2.500000E+05   2.500000E+05   2.500000E+05   2.500000E+05   2.500000E+05   2.500000E+05   2.500000E+05   2.500000E+05   2.500000E+05   2.500000E+05   2.500000E+05   2.500000E+05   2.500000E+05   2.500000E+05   2.500000E+05   2.500000E+05   2.500000E+05   2.500000E+05   2.500000E+05   2.500000E+05   2.500000E+05   2.500000E+05   2.500000E+05   2.500000E+05   2.500000E+05   2.500000E+05   2.500000E+05   2.500000E+05   2.500000E+05   2.500000E+05   2.500000E+05   2.500000E+05   2.500000E+05   2.500000E+05   2.500000E+05   2.500000E+05   2.500000E+05   2.500000E+05   2.500000E+05   2.500000E+05   2.500000E+05   2.500000E+05   2.500000E+05   2.500000E+05   2.500000E+05   2.500000E+05   2.500000E+05   2.500000E+05   2.500000E+05   2.500000E+05   2.500000E+05   2.500000E+05   2.500000E+05   2.500000E+05   2.500000E+05   2.500000E+05   2.500000E+05   6.250000E+04   6.250000E+04   6.250000E+04   6.250000E+04   6.250000E+04   6.250000E+04   6.250000E+04   6.250000E+04   6.250000E+04   6.250000E+04   6.250000E+04   6.250000E+04   6.250000E+04   6.250000E+04   6.250000E+04   6.250000E+04   6.250000E+04   6.250000E+04   6.250000E+04   6.250000E+04   2.500000E+05   2.500000E+05   2.500000E+05   2.500000E+05   2.500000E+05   2.500000E+05   2.500000E+05   2.500000E+05   2.500000E+05   2.500000E+05   2.500000E+05   2.500000E+05   2.500000E+05   2.500000E+05   6.250000E+04   6.250000E+04   6.250000E+04   6.250000E+04   1.562500E+04   1.562500E+04   1.562500E+04   1.562500E+04   1.562500E+04   1.562500E+04   1.562500E+04   1.562500E+04   1.562500E+04   1.562500E+04   1.562500E+04   1.562500E+04   1.562500E+04   1.562500E+04   1.562500E+04   1.562500E+04   1.562500E+04   1.562500E+04   1.562500E+04   1.562500E+04   1.562500E+04   1.562500E+04   1.562500E+04   1.562500E+04   1.562500E+04   1.562500E+04   1.562500E+04   1.562500E+04   1.562500E+04   1.562500E+04   1.562500E+04   1.562500E+04   1.562500E+04   1.562500E+04   1.562500E+04   1.562500E+04   1.562500E+04   1.562500E+04   1.562500E+04   1.562500E+04   1.562500E+04   1.562500E+04   1.562500E+04   1.562500E+04   1.562500E+04   1.562500E+04   1.562500E+04   1.562500E+04   6.250000E+04   6.250000E+04   6.250000E+04   6.250000E+04   2.500000E+05   2.500000E+05   2.500000E+05   2.500000E+05   2.500000E+05   2.500000E+05   2.500000E+05   2.500000E+05   2.500000E+05   2.500000E+05   2.500000E+05   2.500000E+05   2.500000E+05   2.500000E+05   6.250000E+04   6.250000E+04   6.250000E+04   6.250000E+04   1.562500E+04   1.562500E+04   1.562500E+04   1.562500E+04   1.562500E+04   1.562500E+04   1.562500E+04   1.562500E+04   1.562500E+04   1.562500E+04   1.562500E+04   1.562500E+04   1.562500E+04   1.562500E+04   1.562500E+04   1.562500E+04   3.906250E+03   3.906250E+03   3.906250E+03   3.906250E+03   3.906250E+03   3.906250E+03   3.906250E+03   3.906250E+03   3.906250E+03   3.906250E+03   3.906250E+03   3.906250E+03   3.906250E+03   3.906250E+03   3.906250E+03   3.906250E+03   3.906250E+03   3.906250E+03   3.906250E+03   3.906250E+03   3.906250E+03   3.906250E+03   3.906250E+03   3.906250E+03   3.906250E+03   3.906250E+03   3.906250E+03   3.906250E+03   3.906250E+03   3.906250E+03   3.906250E+03   3.906250E+03   3.906250E+03   3.906250E+03   3.906250E+03   3.906250E+03   3.906250E+03   3.906250E+03   3.906250E+03   3.906250E+03   3.906250E+03   3.906250E+03   3.906250E+03   3.906250E+03   3.906250E+03   3.906250E+03   3.906250E+03   3.906250E+03   3.906250E+03   3.906250E+03   3.906250E+03   3.906250E+03   3.906250E+03   3.906250E+03   3.906250E+03   3.906250E+03   3.906250E+03   3.906250E+03   3.906250E+03   3.906250E+03   3.906250E+03   3.906250E+03   3.906250E+03   3.906250E+03   1.562500E+04   1.562500E+04   1.562500E+04   1.562500E+04   1.562500E+04   1.562500E+04   1.562500E+04   1.562500E+04   1.562500E+04   1.562500E+04   1.562500E+04   1.562500E+04   1.562500E+04   1.562500E+04   1.562500E+04   1.562500E+04   6.250000E+04   6.250000E+04   6.250000E+04   6.250000E+04   2.500000E+05   2.500000E+05   2.500000E+05   2.500000E+05   2.500000E+05   2.500000E+05   2.500000E+05   2.500000E+05   2.500000E+05   2.500000E+05   2.500000E+05   2.500000E+05   2.500000E+05   2.500000E+05   6.250000E+04   6.250000E+04   6.250000E+04   6.250000E+04   1.562500E+04   1.562500E+04   1.562500E+04   1.562500E+04   1.562500E+04   1.562500E+04   1.562500E+04   1.562500E+04   1.562500E+04   1.562500E+04   1.562500E+04   1.562500E+04   1.562500E+04   1.562500E+04   1.562500E+04   1.562500E+04   1.562500E+04   1.562500E+04   1.562500E+04   1.562500E+04   1.562500E+04   1.562500E+04   1.562500E+04   1.562500E+04   1.562500E+04   1.562500E+04   1.562500E+04   1.562500E+04   1.562500E+04   1.562500E+04   1.562500E+04   1.562500E+04   1.562500E+04   1.562500E+04   1.562500E+04   1.562500E+04   1.562500E+04   1.562500E+04   1.562500E+04   1.562500E+04   1.562500E+04   1.562500E+04   1.562500E+04   1.562500E+04   1.562500E+04   1.562500E+04   1.562500E+04   1.562500E+04   6.250000E+04   6.250000E+04   6.250000E+04   6.250000E+04   2.500000E+05   2.500000E+05   2.500000E+05   2.500000E+05   2.500000E+05   2.500000E+05   2.500000E+05   2.500000E+05   2.500000E+05   2.500000E+05   2.500000E+05   2.500000E+05   2.500000E+05   2.500000E+05   6.250000E+04   6.250000E+04   6.250000E+04   6.250000E+04   6.250000E+04   6.250000E+04   6.250000E+04   6.250000E+04   6.250000E+04   6.250000E+04   6.250000E+04   6.250000E+04   6.250000E+04   6.250000E+04   6.250000E+04   6.250000E+04   6.250000E+04   6.250000E+04   6.250000E+04   6.250000E+04   2.500000E+05   2.500000E+05   2.500000E+05   2.500000E+05   2.500000E+05   2.500000E+05   2.500000E+05   2.500000E+05   2.500000E+05   2.500000E+05   2.500000E+05   2.500000E+05   2.500000E+05   2.500000E+05   2.500000E+05   2.500000E+05   2.500000E+05   2.500000E+05   2.500000E+05   2.500000E+05   2.500000E+05   2.500000E+05   2.500000E+05   2.500000E+05   2.500000E+05   2.500000E+05   2.500000E+05   2.500000E+05   2.500000E+05   2.500000E+05   2.500000E+05   2.500000E+05   2.500000E+05   2.500000E+05   2.500000E+05   2.500000E+05   2.500000E+05   2.500000E+05   2.500000E+05   2.500000E+05   2.500000E+05   2.500000E+05   2.500000E+05   2.500000E+05   2.500000E+05   2.500000E+05   2.500000E+05   2.500000E+05   2.500000E+05   2.500000E+05   2.500000E+05   2.500000E+05   2.500000E+05   2.500000E+05   2.500000E+05   2.500000E+05   2.500000E+05   2.500000E+05   2.500000E+05   2.500000E+05   2.500000E+05   2.500000E+05   2.500000E+05   2.500000E+05   2.500000E+05   2.500000E+05   2.500000E+05   2.500000E+05   2.500000E+05   2.500000E+05   2.500000E+05   2.500000E+05   2.500000E+05   2.500000E+05   2.500000E+05   2.500000E+05   2.500000E+05   2.500000E+05   2.500000E+05   2.500000E+05   2.500000E+05   2.500000E+05   2.500000E+05   2.500000E+05   2.500000E+05   2.500000E+05   2.500000E+05   2.500000E+05   2.500000E+05   2.500000E+05   2.500000E+05   2.500000E+05   2.500000E+05   2.500000E+05   2.500000E+05   2.500000E+05   2.500000E+05   2.500000E+05   2.500000E+05   2.500000E+05   2.500000E+05   2.500000E+05   2.500000E+05   2.500000E+05   2.500000E+05   2.500000E+05   2.500000E+05   2.500000E+05   2.500000E+05   2.500000E+05   2.500000E+05   2.500000E+05   2.500000E+05   2.500000E+05   2.500000E+05   2.500000E+05   2.500000E+05   2.500000E+05   2.500000E+05   2.500000E+05   2.500000E+05   2.500000E+05   2.500000E+05   2.500000E+05   2.500000E+05   2.500000E+05   2.500000E+05   2.500000E+05   2.500000E+05   2.500000E+05   2.500000E+05   2.500000E+05   2.500000E+05   2.500000E+05   2.500000E+05   2.500000E+05   2.500000E+05   2.500000E+05   2.500000E+05   2.500000E+05   2.500000E+05   2.500000E+05   2.500000E+05   2.500000E+05   2.500000E+05   2.500000E+05   2.500000E+05   2.500000E+05   2.500000E+05   2.500000E+05   2.500000E+05   2.500000E+05   2.500000E+05   2.500000E+05   2.500000E+05   2.500000E+05   2.500000E+05   2.500000E+05   2.500000E+05
INTERNAL               1 (651E15.6) -1 #area layer 3                  